reduced_networks/ieee37/67pct/dss/Shunts.dss
! Kron-equivalent grounded shunts
new Reactor.sh_3 phases=3 bus1=701.1.2.3 bus2=701.0.0.0 rmatrix=[-6.673101974132218e-13 | 1.414957187892997e-07 -3.395914939991199e-06 | 3.537442171787974e-08 -2.122446877523905e-07 -1.131968992486178e-06] xmatrix=[-25243.67945502326 | -5.659925794064372e-07 -25243.67945389128 | 2.829910651700252e-07 5.659874829672863e-07 -25243.67945502326]
new Reactor.sh_4 phases=3 bus1=702.1.2.3 bus2=702.0.0.0 rmatrix=[0.006848230652103229 | 0.001769169914437026 0.006903129874388014 | 0.001677634472733367 0.001779352825906244 0.00684823064716511] xmatrix=[-22326.56996344613 | 0.0009107078863846572 -22326.57008741201 | 0.0007061640667199126 0.0009124788372734116 -22326.56995724784]
new Reactor.sh_5 phases=3 bus1=703.1.2.3 bus2=703.0.0.0 rmatrix=[0.01460850855334349 | 0.004092104733779913 0.01469303888582374 | 0.003877187032686528 0.004084497007681875 0.01458145889377249] xmatrix=[-30850.04802529061 | 0.002018162892646125 -30850.04832452743 | 0.001545638824144671 0.002027038541149384 -30850.04803374365]
new Reactor.sh_6 phases=3 bus1=730.1.2.3 bus2=730.0.0.0 rmatrix=[0.02569106440342143 | 0.009517930290729219 0.02545569322569463 | 0.008697068980743695 0.009188119181999355 0.0249239383879285] xmatrix=[-75884.22125431179 | 8.547821413876704 -75884.22183252749 | 8.546851966941729 8.548031071772755 -75884.22085541365]
new Reactor.sh_7 phases=3 bus1=704.1.2.3 bus2=704.0.0.0 rmatrix=[0.01113340585904102 | 0.003189992872792372 0.01131525828304802 | 0.002965203242432995 0.003054866438105819 0.01131525824257551] xmatrix=[-53326.50552502606 | 0.001506597860692763 -53326.50575234144 | 0.001166887428028516 0.001547009448017889 -53326.50552250026]
new Reactor.sh_8 phases=3 bus1=720.1.2.3 bus2=720.0.0.0 rmatrix=[0.01651660701464687 | 0.006131872906293053 0.01659300057920632 | 0.005782460108805937 0.006132306957766787 0.01649229998122337] xmatrix=[-44213.16218908795 | 0.00267247341836965 -44213.16267609604 | 0.001932845756889769 0.002672907471190422 -44213.16214828692]
new Reactor.sh_9 phases=3 bus1=707.1.2.3 bus2=707.0.0.0 rmatrix=[0.02446478166221602 | 0.006039734441670553 0.02441919167995366 | 0.005732001728762303 0.00613423891434195 0.02427482286429949] xmatrix=[-65402.52252012174 | 0.00317213736505825 -65402.52288246802 | 0.002475404154134392 0.003157949873379806 -65402.52240899603]
new Reactor.sh_10 phases=3 bus1=708.1.2.3 bus2=708.0.0.0 rmatrix=[0.01559701570556962 | 0.005701365555114666 0.01565963455010433 | 0.005372485215683356 0.005599577759824115 0.01534645306514903] xmatrix=[-59384.47796319739 | 3.27281396686542 -59384.47837672337 | 3.272108374146803 3.27285546340006 -59384.47781285898]
new Reactor.sh_11 phases=3 bus1=734.1.2.3 bus2=734.0.0.0 rmatrix=[0.09678631131639584 | 0.02412407947698237 0.09734197202379491 | 0.02284317458232099 0.0241146348595791 0.09678631124552339] xmatrix=[-29768.043447585 | 0.01265982714858773 -29768.04510195488 | 0.009825857176239889 0.01266730402931511 -29768.04343814044]
new Reactor.sh_12 phases=3 bus1=737.1.2.3 bus2=737.0.0.0 rmatrix=[0.06838131486170373 | 0.02576772418852819 0.06885379725309804 | 0.02423334372567237 0.02573995422864783 0.06841573392549805] xmatrix=[-41969.92769947251 | 0.0111816071135305 -41969.92971220496 | 0.008037339654302459 0.01118199816324858 -41969.92768930312]
new Reactor.sh_13 phases=3 bus1=799r.1.2.3 bus2=799r.0.0.0 rmatrix=[-1.133434510778593e-06 | -7.438140928890093e-07 0.0001450793171971959 | 3.63889344203734e-13 2.479372310448808e-07 3.40029507040001e-06] xmatrix=[-35722.97836033681 | -1.983506938421859e-06 -35722.97836487053 | 1.081578672488766e-12 -8.500712386468377e-07 -35722.97836260368]
